main/tmp/tmp/tmp/tmp/tmp/tmp/tmp/tmp/tmp/tmp/tmp/tmp/tmp/tmp/tmp/tmp/tmp/tmp/tmp/tmp/tmp/ALPINE_SystemY.txt
System Y Matrix (Lower Triangle by Columns)

  Row  Col               G               B

[   1,   1] =   0.253166889 + j -3.425841171
[   2,   1] = -0.06577948197 + j 0.3480538245
[   3,   1] = -0.06577948197 + j 0.3480538245
[   4,   1] = -0.1130096736 + j  1.977669288
[   2,   2] =   0.253166889 + j -3.425841171
[   3,   2] = -0.06577948197 + j 0.3480538245
[   5,   2] = -0.1130096736 + j  1.977669288
[   3,   3] =   0.253166889 + j -3.425841171
[   6,   3] = -0.1130096736 + j  1.977669288
[   4,   4] =   13.11573774 + j -60.18712378
[   5,   4] =  -4.064712837 + j  15.92120394
[   6,   4] =  -4.064712837 + j  15.92120394
[   7,   4] =  -13.00272806 + j  58.20945446
[   8,   4] =   4.064712837 + j -15.92120394
[   9,   4] =   4.064712837 + j -15.92120394
[   5,   5] =   13.11573774 + j -60.18712378
[   6,   5] =  -4.064712837 + j  15.92120394
[   7,   5] =   4.064712837 + j -15.92120394
[   8,   5] =  -13.00272806 + j  58.20945446
[   9,   5] =   4.064712837 + j -15.92120394
[   6,   6] =   13.11573774 + j -60.18712378
[   7,   6] =   4.064712837 + j -15.92120394
[   8,   6] =   4.064712837 + j -15.92120394
[   9,   6] =  -13.00272806 + j  58.20945446
[   7,   7] =   34.05296273 + j -152.4452694
[   8,   7] =   -10.6451134 + j  41.69618573
[   9,   7] =   -10.6451134 + j  41.69618573
[  10,   7] =  -21.05023467 + j  94.23581501
[  11,   7] =   6.580400564 + j -25.77498179
[  12,   7] =   6.580400564 + j -25.77498179
[   8,   8] =   34.05296273 + j -152.4452694
[   9,   8] =   -10.6451134 + j  41.69618573
[  10,   8] =   6.580400564 + j -25.77498179
[  11,   8] =  -21.05023467 + j  94.23581501
[  12,   8] =   6.580400564 + j -25.77498179
[   9,   9] =   34.05296273 + j -152.4452694
[  10,   9] =   6.580400564 + j -25.77498179
[  11,   9] =   6.580400564 + j -25.77498179
[  12,   9] =  -21.05023467 + j  94.23581501
[  10,  10] =    165.770598 + j -742.1070431
[  11,  10] =  -51.82065444 + j  202.9779816
[  12,  10] =  -51.82065444 + j  202.9779816
[ 707,  10] =  -144.7203633 + j  647.8712282
[ 708,  10] =   45.24025388 + j -177.2029998
[ 709,  10] =   45.24025388 + j -177.2029998
[  11,  11] =    165.770598 + j -742.1070431
[  12,  11] =  -51.82065444 + j  202.9779816
[ 707,  11] =   45.24025388 + j -177.2029998
[ 708,  11] =  -144.7203633 + j  647.8712282
[ 709,  11] =   45.24025388 + j -177.2029998
[  12,  12] =    165.770598 + j -742.1070431
[ 707,  12] =   45.24025388 + j -177.2029998
[ 708,  12] =   45.24025388 + j -177.2029998
[ 709,  12] =  -144.7203633 + j  647.8712282
[  13,  13] =   204.9647657 + j -884.9387436
[  14,  13] =  -4.937820782 + j  16.05834126
[  15,  13] =  -4.937820782 + j  16.05834126
[  16,  13] =  -9.777333091 + j  39.01023172
[  17,  13] =   3.217691327 + j -10.46428935
[  18,  13] =   3.217691327 + j -10.46428935
[  19,  13] =  -189.9606172 + j   825.074228
[1186,  13] =  -5.226815417 + j  20.85428395
[1187,  13] =   1.720129454 + j -5.594051915
[1188,  13] =   1.720129454 + j -5.594051915
[  14,  14] =   15.00414851 + j -59.86451559
[  15,  14] =  -4.937820782 + j  16.05834126
[  16,  14] =   3.217691327 + j -10.46428935
[  17,  14] =  -9.777333091 + j  39.01023172
[  18,  14] =   3.217691327 + j -10.46428935
[1186,  14] =   1.720129454 + j -5.594051915
[1187,  14] =  -5.226815417 + j  20.85428395
[1188,  14] =   1.720129454 + j -5.594051915
[  15,  15] =   15.00414851 + j -59.86451559
[  16,  15] =   3.217691327 + j -10.46428935
[  17,  15] =   3.217691327 + j -10.46428935
[  18,  15] =  -9.777333091 + j  39.01023172
[1186,  15] =   1.720129454 + j -5.594051915
[1187,  15] =   1.720129454 + j -5.594051915
[1188,  15] =  -5.226815417 + j  20.85428395
[  16,  16] =   21.22654781 + j  -84.6910441
[  17,  16] =  -6.985593942 + j  22.71792688
[  18,  16] =  -6.985593942 + j  22.71792688
[  21,  16] =  -11.44921472 + j  45.68081247
[  22,  16] =   3.767902615 + j -12.25363753
[  23,  16] =   3.767902615 + j -12.25363753
[  17,  17] =   21.22654781 + j  -84.6910441
[  18,  17] =  -6.985593942 + j  22.71792688
[  21,  17] =   3.767902615 + j -12.25363753
[  22,  17] =  -11.44921472 + j  45.68081247
[  23,  17] =   3.767902615 + j -12.25363753
[  18,  18] =   21.22654781 + j  -84.6910441
[  21,  18] =   3.767902615 + j -12.25363753
[  22,  18] =   3.767902615 + j -12.25363753
[  23,  18] =  -11.44921472 + j  45.68081247
[  19,  19] =   241.2025047 + j -865.8921162
[  20,  19] =  -51.24188751 + j  40.81788828
[  20,  20] =   51.24188751 + j -40.81788824
[  21,  21] =    40.1129802 + j -76.67411171
[  22,  21] =  -11.24551966 + j  17.18829772
[  23,  21] =  -11.24551966 + j  17.18829772
[  24,  21] =  -24.72907378 + j  15.29441365
[  25,  21] =   6.182721673 + j-0.7235167173
[  26,  21] =   6.182721673 + j-0.7235167173
[  27,  21] =  -3.934691695 + j  15.69888571
[  28,  21] =   1.294895369 + j  -4.21114347
[  29,  21] =   1.294895369 + j  -4.21114347
[  22,  22] =    40.1129802 + j -76.67411171
[  23,  22] =  -11.24551966 + j  17.18829772
[  24,  22] =   6.182721673 + j-0.7235167173
[  25,  22] =  -24.72907378 + j  15.29441365
[  26,  22] =   6.182721673 + j-0.7235167173
[  27,  22] =   1.294895369 + j  -4.21114347
[  28,  22] =  -3.934691695 + j  15.69888571
[  29,  22] =   1.294895369 + j  -4.21114347
[  23,  23] =    40.1129802 + j -76.67411171
[  24,  23] =   6.182721673 + j-0.7235167173
[  25,  23] =   6.182721673 + j-0.7235167173
[  26,  23] =  -24.72907378 + j  15.29441365
[  27,  23] =   1.294895369 + j  -4.21114347
[  28,  23] =   1.294895369 + j  -4.21114347
[  29,  23] =  -3.934691695 + j  15.69888571
[  24,  24] =   34.67838043 + j -21.44785113
[  25,  24] =  -8.670230684 + j  1.014610907
[  26,  24] =  -8.670230684 + j  1.014610907
[  30,  24] =  -9.949306651 + j  6.153437563
[  31,  24] =   2.487509011 + j-0.2910941895
[  32,  24] =   2.487509011 + j-0.2910941895
[  25,  25] =   34.67838043 + j -21.44785113
[  26,  25] =  -8.670230684 + j  1.014610907
[  30,  25] =   2.487509011 + j-0.2910941895
[  31,  25] =  -9.949306651 + j  6.153437563
[  32,  25] =   2.487509011 + j-0.2910941895
[  26,  26] =   34.67838043 + j -21.44785113
[  30,  26] =   2.487509011 + j-0.2910941895
[  31,  26] =   2.487509011 + j-0.2910941895
[  32,  26] =  -9.949306651 + j  6.153437563
[  27,  27] =   149.7803558 + j -635.1619244
[  28,  27] =  -5.492151307 + j  8.211375883
[  29,  27] =  -64.66410296 + j  233.8351445
[  33,  27] =  -9.689846575 + j  5.993037008
[  34,  27] =   2.487589251 + j -0.334993992
[  35,  27] =   2.487589251 + j -0.334993992
[  38,  27] =  -5.367151958 + j  14.01954246
[  39,  27] =   1.709666687 + j -3.665238421
[  40,  27] =   1.709666687 + j -3.665238421
[ 255,  27] =  -130.7886656 + j  599.4504594
[ 256,  27] =   59.17195165 + j -225.6237686
[  28,  28] =    24.3015409 + j -38.30357159
[  29,  28] =  -6.765233088 + j   7.85204307
[  33,  28] =   2.487589251 + j -0.334993992
[  34,  28] =  -9.689846575 + j  5.993037008
[  35,  28] =   2.487589251 + j -0.334993992
[  36,  28] =  -5.309850676 + j  2.592106574
[  37,  28] =   1.273081782 + j 0.3593328134
[  38,  28] =   1.709666687 + j -3.665238421
[  39,  28] =  -5.367151958 + j  14.01954246
[  40,  28] =   1.709666687 + j -3.665238421
[  29,  29] =   155.0902065 + j -637.7540309
[  33,  29] =   2.487589251 + j -0.334993992
[  34,  29] =   2.487589251 + j -0.334993992
[  35,  29] =  -9.689846575 + j  5.993037008
[  36,  29] =   1.273081782 + j 0.3593328134
[  37,  29] =  -5.309850676 + j  2.592106574
[  38,  29] =   1.709666687 + j -3.665238421
[  39,  29] =   1.709666687 + j -3.665238421
[  40,  29] =  -5.367151958 + j  14.01954246
[ 255,  29] =   59.17195165 + j -225.6237686
[ 256,  29] =  -130.7886656 + j  599.4504594
[  30,  30] =   9.949306651 + j -6.153437521
[  31,  30] =  -2.487509011 + j 0.2910941895
[  32,  30] =  -2.487509011 + j 0.2910941895
[  31,  31] =   9.949306651 + j -6.153437521
[  32,  31] =  -2.487509011 + j 0.2910941895
[  32,  32] =   9.949306651 + j -6.153437521
[  33,  33] =   164.6425561 + j -658.8593833
[  34,  33] =  -47.72784313 + j  177.5379938
[  35,  33] =  -50.18113501 + j  176.8455416
[  53,  33] =   -10.2323462 + j  4.995118221
[  54,  33] =   2.453291878 + j 0.6924521936
[  55,  33] =  -144.7203633 + j  647.8712282
[  56,  33] =   45.24025388 + j -177.2029998
[  57,  33] =   45.24025388 + j -177.2029998
[  34,  34] =   154.4102099 + j -653.8642651
[  35,  34] =  -47.72784313 + j  177.5379938
[  55,  34] =   45.24025388 + j -177.2029998
[  56,  34] =  -144.7203633 + j  647.8712282
[  57,  34] =   45.24025388 + j -177.2029998
[  35,  35] =   164.6425561 + j -658.8593833
[  53,  35] =   2.453291878 + j 0.6924521936
[  54,  35] =   -10.2323462 + j  4.995118221
[  55,  35] =   45.24025388 + j -177.2029998
[  56,  35] =   45.24025388 + j -177.2029998
[  57,  35] =  -144.7203633 + j  647.8712282
[  36,  36] =   136.0985162 + j -602.0425659
[  37,  36] =  -60.44503344 + j  225.2644358
[ 251,  36] =  -130.7886656 + j  599.4504594
[ 252,  36] =   59.17195165 + j -225.6237686
[  37,  37] =   136.0985162 + j -602.0425659
[ 251,  37] =   59.17195165 + j -225.6237686
[ 252,  37] =  -130.7886656 + j  599.4504594
...
